/*--------------------------------*- C++ -*----------------------------------*\
| =========                 |                                                 |
| \\      /  F ield         | OpenFOAM: The Open Source CFD Toolbox           |
|  \\    /   O peration     | Version:  2.3.0                                 |
|   \\  /    A nd           | Web:      www.OpenFOAM.org                      |
|    \\/     M anipulation  |                                                 |
\*---------------------------------------------------------------------------*/
FoamFile
{
    version     2.0;
    format      ascii;
    class       dictionary;
    object      blockMeshDict;
}
// * * * * * * * * * * * * * * * * * * * * * * * * * * * * * * * * * * * * * //

convertToMeters 1.0;

vertices
(
    ( -0.707106781186548 -0.707106781186548                  0 )  // 0 v3e0
    (  0.707106781186548 -0.707106781186548                  0 )  // 1 v0e0
    ( -0.353553390593274 -0.353553390593274                  0 )  // 2 v3i0
    (  0.353553390593274 -0.353553390593274                  0 )  // 3 v0i0
    ( -0.353553390593274  0.353553390593274                  0 )  // 4 v2i0
    (  0.353553390593274  0.353553390593274                  0 )  // 5 v1i0
    ( -0.707106781186548  0.707106781186548                  0 )  // 6 v2e0
    (  0.707106781186548  0.707106781186548                  0 )  // 7 v1e0
    ( -0.707106781186548 -0.707106781186548                 10 )  // 8 v3eL
    (  0.707106781186548 -0.707106781186548                 10 )  // 9 v0eL
    ( -0.353553390593274 -0.353553390593274                 10 )  // 10 v3iL
    (  0.353553390593274 -0.353553390593274                 10 )  // 11 v0iL
    ( -0.353553390593274  0.353553390593274                 10 )  // 12 v2iL
    (  0.353553390593274  0.353553390593274                 10 )  // 13 v1iL
    ( -0.707106781186548  0.707106781186548                 10 )  // 14 v2eL
    (  0.707106781186548  0.707106781186548                 10 )  // 15 v1eL
);

edges
(
  arc 1 7 (                 1                  0                  0) // a00 (v0e0 v1e0)
  arc 7 6 (                 0                  1                  0) // a10 (v1e0 v2e0)
  arc 6 0 (                -1                  0                  0) // a20 (v2e0 v3e0)
  arc 0 1 (                 0                 -1                  0) // a30 (v3e0 v0e0)
  arc 9 15 (                 1                  0                 10) // a0L (v0eL v1eL)
  arc 15 14 (                 0                  1                 10) // a1L (v1eL v2eL)
  arc 14 8 (                -1                  0                 10) // a2L (v2eL v3eL)
  arc 8 9 (                 0                 -1                 10) // a3L (v3eL v0eL)
);

blocks
(
    hex (3 5 4 2 11 13 12 10) cylinder (20 20 100) simpleGrading (1 1 1)  // cylinder (v0i0 v1i0 v2i0 v3i0 v0iL v1iL v2iL v3iL)
    hex (3 1 7 5 11 9 15 13) cylinder (20 20 100) simpleGrading (1 1 1)  // cylinder (v0i0 v0e0 v1e0 v1i0 v0iL v0eL v1eL v1iL)
    hex (5 7 6 4 13 15 14 12) cylinder (20 20 100) simpleGrading (1 1 1)  // cylinder (v1i0 v1e0 v2e0 v2i0 v1iL v1eL v2eL v2iL)
    hex (4 6 0 2 12 14 8 10) cylinder (20 20 100) simpleGrading (1 1 1)  // cylinder (v2i0 v2e0 v3e0 v3i0 v2iL v2eL v3eL v3iL)
    hex (2 0 1 3 10 8 9 11) cylinder (20 20 100) simpleGrading (1 1 1)  // cylinder (v3i0 v3e0 v0e0 v0i0 v3iL v3eL v0eL v0iL)
);

boundary
(
);

mergePatchPairs
(
);

// ************************************************************************* //

